* Synopsys, Inc. 
*epic tech="voltage 1.8" 

.lib '~/research/lib/model018ls.lib' TT 
.temp 25 
.option post CONVERGE=1 GMINDC=1.0000E-12 
vdd vdd gnd 1.8 
.tran 0.01n 2000n 
.OPTIONS SCALE=1.00e+00
.global vdd gnd
.SUBCKT invload out in0
mxn0  out in0 gnd gnd  nmos4 l=2e-07 w=1.4e-06 m=3
mxp0  out in0 vdd vdd  pmos4 l=2e-07 w=2.1e-06 m=3
.ENDS
.SUBCKT inv1x_1 out in0
mxn0  out in0 gnd gnd  nmos4 l=2e-07 w=6e-07
mxp0  out in0 vdd vdd  pmos4 l=2e-07 w=1e-06
.ENDS
.SUBCKT inv1x_2 out in0
mxn0  out in0 gnd gnd  nmos4 l=2e-07 w=6e-07
mxp0  out in0 vdd vdd  pmos4 l=2e-07 w=2.1e-06
.ENDS
.SUBCKT inv1x_3 out in0
mxn0  out in0 gnd gnd  nmos4 l=2e-07 w=6e-07
mxp0  out in0 vdd vdd  pmos4 l=2e-07 w=1.4e-06
.ENDS
.SUBCKT nand2_1 out in0 in1
mxn0  out in0 inta gnd  nmos4 l=2e-07 w=6e-07
mxp0  out in0 vdd vdd  pmos4 l=2e-07 w=1e-06
mxn1  inta in1 gnd gnd  nmos4 l=2e-07 w=6e-07
mxp1  out in1 vdd vdd  pmos4 l=2e-07 w=1e-06
.ENDS
.SUBCKT nand2_2 out in0 in1
mxn0  out in0 inta gnd  nmos4 l=2e-07 w=6e-07
mxp0  out in0 vdd vdd  pmos4 l=2e-07 w=1.4e-06
mxn1  inta in1 gnd gnd  nmos4 l=2e-07 w=6e-07
mxp1  out in1 vdd vdd  pmos4 l=2e-07 w=1.4e-06
.ENDS
.SUBCKT nand2_3 out in0 in1
mxn0  out in0 inta gnd  nmos4 l=2e-07 w=2.1e-06
mxp0  out in0 vdd vdd  pmos4 l=2e-07 w=2.1e-06
mxn1  inta in1 gnd gnd  nmos4 l=2e-07 w=2.1e-06
mxp1  out in1 vdd vdd  pmos4 l=2e-07 w=2.1e-06
.ENDS
.SUBCKT nand2_4 out in0 in1
mxn0  out in0 inta gnd  nmos4 l=2e-07 w=1.4e-06
mxp0  out in0 vdd vdd  pmos4 l=2e-07 w=2.1e-06
mxn1  inta in1 gnd gnd  nmos4 l=2e-07 w=1.4e-06
mxp1  out in1 vdd vdd  pmos4 l=2e-07 w=2.1e-06
.ENDS
.SUBCKT oai21_1 out in0 in1 in2
mxn0  inta in0 gnd gnd  nmos4 l=2e-07 w=6e-07
mxp0  out in0 intm vdd  pmos4 l=2e-07 w=1.4e-06
mxn1  inta in1 gnd gnd  nmos4 l=2e-07 w=6e-07
mxp1  intm in1 vdd vdd  pmos4 l=2e-07 w=1.4e-06
mxn2  out in2 inta gnd  nmos4 l=2e-07 w=6e-07
mxp2  out in2 vdd vdd  pmos4 l=2e-07 w=1.4e-06
.ENDS
.SUBCKT nor2_1 out in0 in1
mxn0  out in0 gnd gnd  nmos4 l=2e-07 w=6e-07
mxp0  out in0 intm vdd  pmos4 l=2e-07 w=1e-06
mxn1  out in1 gnd gnd  nmos4 l=2e-07 w=6e-07
mxp1  intm in1 vdd vdd  pmos4 l=2e-07 w=1e-06
.ENDS
.SUBCKT oai21_2 out in0 in1 in2
mxn0  inta in0 gnd gnd  nmos4 l=2e-07 w=1e-06
mxp0  out in0 intm vdd  pmos4 l=2e-07 w=1.4e-06
mxn1  inta in1 gnd gnd  nmos4 l=2e-07 w=1e-06
mxp1  intm in1 vdd vdd  pmos4 l=2e-07 w=1.4e-06
mxn2  out in2 inta gnd  nmos4 l=2e-07 w=1e-06
mxp2  out in2 vdd vdd  pmos4 l=2e-07 w=1.4e-06
.ENDS
.SUBCKT nand2_5 out in0 in1
mxn0  out in0 inta gnd  nmos4 l=2e-07 w=1.4e-06
mxp0  out in0 vdd vdd  pmos4 l=2e-07 w=1.4e-06
mxn1  inta in1 gnd gnd  nmos4 l=2e-07 w=1.4e-06
mxp1  out in1 vdd vdd  pmos4 l=2e-07 w=1.4e-06
.ENDS
.SUBCKT nor2_2 out in0 in1
mxn0  out in0 gnd gnd  nmos4 l=2e-07 w=6e-07
mxp0  out in0 intm vdd  pmos4 l=2e-07 w=1.4e-06
mxn1  out in1 gnd gnd  nmos4 l=2e-07 w=6e-07
mxp1  intm in1 vdd vdd  pmos4 l=2e-07 w=1.4e-06
.ENDS
.SUBCKT inv1x_4 out in0
mxn0  out in0 gnd gnd  nmos4 l=2e-07 w=2.1e-06
mxp0  out in0 vdd vdd  pmos4 l=2e-07 w=2.1e-06
.ENDS
.SUBCKT inv1x_5 out in0
mxn0  out in0 gnd gnd  nmos4 l=2e-07 w=1.4e-06
mxp0  out in0 vdd vdd  pmos4 l=2e-07 w=3.5e-06
.ENDS
.SUBCKT inv1x_6 out in0
mxn0  out in0 gnd gnd  nmos4 l=2e-07 w=1e-06
mxp0  out in0 vdd vdd  pmos4 l=2e-07 w=1e-06
.ENDS
.SUBCKT inv1x_7 out in0
mxn0  out in0 gnd gnd  nmos4 l=2e-07 w=2.1e-06
mxp0  out in0 vdd vdd  pmos4 l=2e-07 w=3.5e-06
.ENDS
.SUBCKT nand3_1 out in0 in1 in2
mxn0  out in0 inta gnd  nmos4 l=2e-07 w=2.1e-06
mxp0  out in0 vdd vdd  pmos4 l=2e-07 w=2.1e-06
mxn1  inta in1 intb gnd  nmos4 l=2e-07 w=2.1e-06
mxp1  out in1 vdd vdd  pmos4 l=2e-07 w=2.1e-06
mxn2  intb in2 gnd gnd  nmos4 l=2e-07 w=2.1e-06
mxp2  out in2 vdd vdd  pmos4 l=2e-07 w=2.1e-06
.ENDS
.SUBCKT nand3_2 out in0 in1 in2
mxn0  out in0 inta gnd  nmos4 l=2e-07 w=1.4e-06
mxp0  out in0 vdd vdd  pmos4 l=2e-07 w=1.4e-06
mxn1  inta in1 intb gnd  nmos4 l=2e-07 w=1.4e-06
mxp1  out in1 vdd vdd  pmos4 l=2e-07 w=1.4e-06
mxn2  intb in2 gnd gnd  nmos4 l=2e-07 w=1.4e-06
mxp2  out in2 vdd vdd  pmos4 l=2e-07 w=1.4e-06
.ENDS
.SUBCKT nand3_3 out in0 in1 in2
mxn0  out in0 inta gnd  nmos4 l=2e-07 w=1.4e-06
mxp0  out in0 vdd vdd  pmos4 l=2e-07 w=1e-06
mxn1  inta in1 intb gnd  nmos4 l=2e-07 w=1.4e-06
mxp1  out in1 vdd vdd  pmos4 l=2e-07 w=1e-06
mxn2  intb in2 gnd gnd  nmos4 l=2e-07 w=1.4e-06
mxp2  out in2 vdd vdd  pmos4 l=2e-07 w=1e-06
.ENDS
.SUBCKT inv1x_8 out in0
mxn0  out in0 gnd gnd  nmos4 l=2e-07 w=2.1e-06
mxp0  out in0 vdd vdd  pmos4 l=2e-07 w=4.2e-06
.ENDS
.SUBCKT nand3_4 out in0 in1 in2
mxn0  out in0 inta gnd  nmos4 l=2e-07 w=1e-06
mxp0  out in0 vdd vdd  pmos4 l=2e-07 w=1e-06
mxn1  inta in1 intb gnd  nmos4 l=2e-07 w=1e-06
mxp1  out in1 vdd vdd  pmos4 l=2e-07 w=1e-06
mxn2  intb in2 gnd gnd  nmos4 l=2e-07 w=1e-06
mxp2  out in2 vdd vdd  pmos4 l=2e-07 w=1e-06
.ENDS
.SUBCKT inv1x_9 out in0
mxn0  out in0 gnd gnd  nmos4 l=2e-07 w=1.4e-06
mxp0  out in0 vdd vdd  pmos4 l=2e-07 w=2.8e-06
.ENDS
.SUBCKT nand2_6 out in0 in1
mxn0  out in0 inta gnd  nmos4 l=2e-07 w=2.1e-06
mxp0  out in0 vdd vdd  pmos4 l=2e-07 w=4.2e-06
mxn1  inta in1 gnd gnd  nmos4 l=2e-07 w=2.1e-06
mxp1  out in1 vdd vdd  pmos4 l=2e-07 w=4.2e-06
.ENDS
.SUBCKT xor2_1 out in0 in1
mxm0  out in0 intd vdd  pmos4 l=2e-07 w=3.5e-06
mxm1  intb in1 gnd gnd  nmos4 l=2e-07 w=1e-06
mxm7  inta in0 gnd gnd  nmos4 l=2e-07 w=6e-07
mxm8  inta in1 gnd gnd  nmos4 l=2e-07 w=6e-07
mxm3  out inta gnd gnd  nmos4 l=2e-07 w=1e-06
mxm2  out in0 intb gnd  nmos4 l=2e-07 w=1e-06
mxm10  inta in0 intc vdd  pmos4 l=2e-07 w=2.8e-06
mxm6  intd inta vdd vdd  pmos4 l=2e-07 w=3.5e-06
mxm9  intc in1 vdd vdd  pmos4 l=2e-07 w=2.8e-06
mxm4  out in1 intd vdd  pmos4 l=2e-07 w=3.5e-06
.ENDS
.SUBCKT xor2_2 out in0 in1
mxm0  out in0 intd vdd  pmos4 l=2e-07 w=2.8e-06
mxm1  intb in1 gnd gnd  nmos4 l=2e-07 w=1e-06
mxm7  inta in0 gnd gnd  nmos4 l=2e-07 w=6e-07
mxm8  inta in1 gnd gnd  nmos4 l=2e-07 w=6e-07
mxm3  out inta gnd gnd  nmos4 l=2e-07 w=1e-06
mxm2  out in0 intb gnd  nmos4 l=2e-07 w=1e-06
mxm10  inta in0 intc vdd  pmos4 l=2e-07 w=2.8e-06
mxm6  intd inta vdd vdd  pmos4 l=2e-07 w=2.8e-06
mxm9  intc in1 vdd vdd  pmos4 l=2e-07 w=2.8e-06
mxm4  out in1 intd vdd  pmos4 l=2e-07 w=2.8e-06
.ENDS
.SUBCKT nand3_5 out in0 in1 in2
mxn0  out in0 inta gnd  nmos4 l=2e-07 w=1e-06
mxp0  out in0 vdd vdd  pmos4 l=2e-07 w=1.4e-06
mxn1  inta in1 intb gnd  nmos4 l=2e-07 w=1e-06
mxp1  out in1 vdd vdd  pmos4 l=2e-07 w=1.4e-06
mxn2  intb in2 gnd gnd  nmos4 l=2e-07 w=1e-06
mxp2  out in2 vdd vdd  pmos4 l=2e-07 w=1.4e-06
.ENDS
.SUBCKT nand2_7 out in0 in1
mxn0  out in0 inta gnd  nmos4 l=2e-07 w=1e-06
mxp0  out in0 vdd vdd  pmos4 l=2e-07 w=1.4e-06
mxn1  inta in1 gnd gnd  nmos4 l=2e-07 w=1e-06
mxp1  out in1 vdd vdd  pmos4 l=2e-07 w=1.4e-06
.ENDS
.SUBCKT inv1x_10 out in0
mxn0  out in0 gnd gnd  nmos4 l=2e-07 w=1e-06
mxp0  out in0 vdd vdd  pmos4 l=2e-07 w=1.4e-06
.ENDS
.SUBCKT xor2_3 out in0 in1
mxm0  out in0 intd vdd  pmos4 l=2e-07 w=2.1e-06
mxm1  intb in1 gnd gnd  nmos4 l=2e-07 w=6e-07
mxm7  inta in0 gnd gnd  nmos4 l=2e-07 w=1e-06
mxm8  inta in1 gnd gnd  nmos4 l=2e-07 w=1e-06
mxm3  out inta gnd gnd  nmos4 l=2e-07 w=6e-07
mxm2  out in0 intb gnd  nmos4 l=2e-07 w=6e-07
mxm10  inta in0 intc vdd  pmos4 l=2e-07 w=1.4e-06
mxm6  intd inta vdd vdd  pmos4 l=2e-07 w=2.1e-06
mxm9  intc in1 vdd vdd  pmos4 l=2e-07 w=1.4e-06
mxm4  out in1 intd vdd  pmos4 l=2e-07 w=2.1e-06
.ENDS
.SUBCKT oai21_3 out in0 in1 in2
mxn0  inta in0 gnd gnd  nmos4 l=2e-07 w=1e-06
mxp0  out in0 intm vdd  pmos4 l=2e-07 w=1e-06
mxn1  inta in1 gnd gnd  nmos4 l=2e-07 w=1e-06
mxp1  intm in1 vdd vdd  pmos4 l=2e-07 w=1e-06
mxn2  out in2 inta gnd  nmos4 l=2e-07 w=1e-06
mxp2  out in2 vdd vdd  pmos4 l=2e-07 w=1e-06
.ENDS
.SUBCKT nand3_6 out in0 in1 in2
mxn0  out in0 inta gnd  nmos4 l=2e-07 w=6e-07
mxp0  out in0 vdd vdd  pmos4 l=2e-07 w=1e-06
mxn1  inta in1 intb gnd  nmos4 l=2e-07 w=6e-07
mxp1  out in1 vdd vdd  pmos4 l=2e-07 w=1e-06
mxn2  intb in2 gnd gnd  nmos4 l=2e-07 w=6e-07
mxp2  out in2 vdd vdd  pmos4 l=2e-07 w=1e-06
.ENDS
.SUBCKT aoi22_1 out in0 in1 in2 in3
mxn0  out in0 inta gnd  nmos4 l=2e-07 w=6e-07
mxp0  intm in0 vdd vdd  pmos4 l=2e-07 w=1e-06
mxn1  inta in1 gnd gnd  nmos4 l=2e-07 w=6e-07
mxp1  intm in1 vdd vdd  pmos4 l=2e-07 w=1e-06
mxn2  out in2 intb gnd  nmos4 l=2e-07 w=6e-07
mxp2  out in2 intm vdd  pmos4 l=2e-07 w=1e-06
mxn3  intb in3 gnd gnd  nmos4 l=2e-07 w=6e-07
mxp3  out in3 intm vdd  pmos4 l=2e-07 w=1e-06
.ENDS
.SUBCKT oai21_4 out in0 in1 in2
mxn0  inta in0 gnd gnd  nmos4 l=2e-07 w=6e-07
mxp0  out in0 intm vdd  pmos4 l=2e-07 w=1e-06
mxn1  inta in1 gnd gnd  nmos4 l=2e-07 w=6e-07
mxp1  intm in1 vdd vdd  pmos4 l=2e-07 w=1e-06
mxn2  out in2 inta gnd  nmos4 l=2e-07 w=6e-07
mxp2  out in2 vdd vdd  pmos4 l=2e-07 w=1e-06
.ENDS
.SUBCKT nand2_8 out in0 in1
mxn0  out in0 inta gnd  nmos4 l=2e-07 w=1e-06
mxp0  out in0 vdd vdd  pmos4 l=2e-07 w=2.1e-06
mxn1  inta in1 gnd gnd  nmos4 l=2e-07 w=1e-06
mxp1  out in1 vdd vdd  pmos4 l=2e-07 w=2.1e-06
.ENDS
.SUBCKT aoi21_1 out in0 in1 in2
mxn0  out in0 inta gnd  nmos4 l=2e-07 w=6e-07
mxp0  intm in0 vdd vdd  pmos4 l=2e-07 w=1e-06
mxn1  inta in1 gnd gnd  nmos4 l=2e-07 w=6e-07
mxp1  intm in1 vdd vdd  pmos4 l=2e-07 w=1e-06
mxn2  out in2 gnd gnd  nmos4 l=2e-07 w=6e-07
mxp2  out in2 intm vdd  pmos4 l=2e-07 w=1e-06
.ENDS
.SUBCKT inv1x_11 out in0
mxn0  out in0 gnd gnd  nmos4 l=2e-07 w=1e-06
mxp0  out in0 vdd vdd  pmos4 l=2e-07 w=2.1e-06
.ENDS
.SUBCKT xor2_4 out in0 in1
mxm0  out in0 intd vdd  pmos4 l=2e-07 w=2.1e-06
mxm1  intb in1 gnd gnd  nmos4 l=2e-07 w=6e-07
mxm7  inta in0 gnd gnd  nmos4 l=2e-07 w=1e-06
mxm8  inta in1 gnd gnd  nmos4 l=2e-07 w=1e-06
mxm3  out inta gnd gnd  nmos4 l=2e-07 w=6e-07
mxm2  out in0 intb gnd  nmos4 l=2e-07 w=6e-07
mxm10  inta in0 intc vdd  pmos4 l=2e-07 w=1e-06
mxm6  intd inta vdd vdd  pmos4 l=2e-07 w=2.1e-06
mxm9  intc in1 vdd vdd  pmos4 l=2e-07 w=1e-06
mxm4  out in1 intd vdd  pmos4 l=2e-07 w=2.1e-06
.ENDS
.SUBCKT xor2_5 out in0 in1
mxm0  out in0 intd vdd  pmos4 l=2e-07 w=1.4e-06
mxm1  intb in1 gnd gnd  nmos4 l=2e-07 w=6e-07
mxm7  inta in0 gnd gnd  nmos4 l=2e-07 w=6e-07
mxm8  inta in1 gnd gnd  nmos4 l=2e-07 w=6e-07
mxm3  out inta gnd gnd  nmos4 l=2e-07 w=6e-07
mxm2  out in0 intb gnd  nmos4 l=2e-07 w=6e-07
mxm10  inta in0 intc vdd  pmos4 l=2e-07 w=1e-06
mxm6  intd inta vdd vdd  pmos4 l=2e-07 w=1.4e-06
mxm9  intc in1 vdd vdd  pmos4 l=2e-07 w=1e-06
mxm4  out in1 intd vdd  pmos4 l=2e-07 w=1.4e-06
.ENDS
.SUBCKT nand2_9 out in0 in1
mxn0  out in0 inta gnd  nmos4 l=2e-07 w=1e-06
mxp0  out in0 vdd vdd  pmos4 l=2e-07 w=1e-06
mxn1  inta in1 gnd gnd  nmos4 l=2e-07 w=1e-06
mxp1  out in1 vdd vdd  pmos4 l=2e-07 w=1e-06
.ENDS
.SUBCKT xor2_6 out in0 in1
mxm0  out in0 intd vdd  pmos4 l=2e-07 w=2.1e-06
mxm1  intb in1 gnd gnd  nmos4 l=2e-07 w=1e-06
mxm7  inta in0 gnd gnd  nmos4 l=2e-07 w=6e-07
mxm8  inta in1 gnd gnd  nmos4 l=2e-07 w=6e-07
mxm3  out inta gnd gnd  nmos4 l=2e-07 w=1e-06
mxm2  out in0 intb gnd  nmos4 l=2e-07 w=1e-06
mxm10  inta in0 intc vdd  pmos4 l=2e-07 w=2.8e-06
mxm6  intd inta vdd vdd  pmos4 l=2e-07 w=2.1e-06
mxm9  intc in1 vdd vdd  pmos4 l=2e-07 w=2.8e-06
mxm4  out in1 intd vdd  pmos4 l=2e-07 w=2.1e-06
.ENDS
.SUBCKT oai21_5 out in0 in1 in2
mxn0  inta in0 gnd gnd  nmos4 l=2e-07 w=1e-06
mxp0  out in0 intm vdd  pmos4 l=2e-07 w=2.1e-06
mxn1  inta in1 gnd gnd  nmos4 l=2e-07 w=1e-06
mxp1  intm in1 vdd vdd  pmos4 l=2e-07 w=2.1e-06
mxn2  out in2 inta gnd  nmos4 l=2e-07 w=1e-06
mxp2  out in2 vdd vdd  pmos4 l=2e-07 w=2.1e-06
.ENDS
.SUBCKT inv1x_12 out in0
mxn0  out in0 gnd gnd  nmos4 l=2e-07 w=1.4e-06
mxp0  out in0 vdd vdd  pmos4 l=2e-07 w=2.1e-06
.ENDS
.SUBCKT oai21_6 out in0 in1 in2
mxn0  inta in0 gnd gnd  nmos4 l=2e-07 w=1.4e-06
mxp0  out in0 intm vdd  pmos4 l=2e-07 w=2.8e-06
mxn1  inta in1 gnd gnd  nmos4 l=2e-07 w=1.4e-06
mxp1  intm in1 vdd vdd  pmos4 l=2e-07 w=2.8e-06
mxn2  out in2 inta gnd  nmos4 l=2e-07 w=1.4e-06
mxp2  out in2 vdd vdd  pmos4 l=2e-07 w=2.8e-06
.ENDS
.SUBCKT oai22_1 out in0 in1 in2 in3
mxn0  inta in0 gnd gnd  nmos4 l=2e-07 w=6e-07
mxp0  out in0 intm vdd  pmos4 l=2e-07 w=1e-06
mxn1  inta in1 gnd gnd  nmos4 l=2e-07 w=6e-07
mxp1  intm in1 vdd vdd  pmos4 l=2e-07 w=1e-06
mxn2  out in2 inta gnd  nmos4 l=2e-07 w=6e-07
mxp2  out in2 intn vdd  pmos4 l=2e-07 w=1e-06
mxn3  out in3 inta gnd  nmos4 l=2e-07 w=6e-07
mxp3  intn in3 vdd vdd  pmos4 l=2e-07 w=1e-06
.ENDS
.SUBCKT nand4_1 out in0 in1 in2 in3
mxn0  out in0 inta gnd  nmos4 l=2e-07 w=6e-07
mxp0  out in0 vdd vdd  pmos4 l=2e-07 w=1e-06
mxn1  inta in1 intb gnd  nmos4 l=2e-07 w=6e-07
mxp1  out in1 vdd vdd  pmos4 l=2e-07 w=1e-06
mxn2  intb in2 intc gnd  nmos4 l=2e-07 w=6e-07
mxp2  out in2 vdd vdd  pmos4 l=2e-07 w=1e-06
mxn3  intc in3 gnd gnd  nmos4 l=2e-07 w=6e-07
mxp3  out in3 vdd vdd  pmos4 l=2e-07 w=1e-06
.ENDS
.SUBCKT nand3_7 out in0 in1 in2
mxn0  out in0 inta gnd  nmos4 l=2e-07 w=2.8e-06
mxp0  out in0 vdd vdd  pmos4 l=2e-07 w=1.4e-06
mxn1  inta in1 intb gnd  nmos4 l=2e-07 w=2.8e-06
mxp1  out in1 vdd vdd  pmos4 l=2e-07 w=1.4e-06
mxn2  intb in2 gnd gnd  nmos4 l=2e-07 w=2.8e-06
mxp2  out in2 vdd vdd  pmos4 l=2e-07 w=1.4e-06
.ENDS
.SUBCKT nand4_2 out in0 in1 in2 in3
mxn0  out in0 inta gnd  nmos4 l=2e-07 w=1e-06
mxp0  out in0 vdd vdd  pmos4 l=2e-07 w=1e-06
mxn1  inta in1 intb gnd  nmos4 l=2e-07 w=1e-06
mxp1  out in1 vdd vdd  pmos4 l=2e-07 w=1e-06
mxn2  intb in2 intc gnd  nmos4 l=2e-07 w=1e-06
mxp2  out in2 vdd vdd  pmos4 l=2e-07 w=1e-06
mxn3  intc in3 gnd gnd  nmos4 l=2e-07 w=1e-06
mxp3  out in3 vdd vdd  pmos4 l=2e-07 w=1e-06
.ENDS
.SUBCKT inv1x_13 out in0
mxn0  out in0 gnd gnd  nmos4 l=2e-07 w=3.5e-06
mxp0  out in0 vdd vdd  pmos4 l=2e-07 w=8.4e-06
.ENDS
.SUBCKT inv1x_14 out in0
mxn0  out in0 gnd gnd  nmos4 l=2e-07 w=2.1e-06
mxp0  out in0 vdd vdd  pmos4 l=2e-07 w=2.8e-06
.ENDS
.SUBCKT xor2_7 out in0 in1
mxm0  out in0 intd vdd  pmos4 l=2e-07 w=1e-06
mxm1  intb in1 gnd gnd  nmos4 l=2e-07 w=6e-07
mxm7  inta in0 gnd gnd  nmos4 l=2e-07 w=6e-07
mxm8  inta in1 gnd gnd  nmos4 l=2e-07 w=6e-07
mxm3  out inta gnd gnd  nmos4 l=2e-07 w=6e-07
mxm2  out in0 intb gnd  nmos4 l=2e-07 w=6e-07
mxm10  inta in0 intc vdd  pmos4 l=2e-07 w=1e-06
mxm6  intd inta vdd vdd  pmos4 l=2e-07 w=1e-06
mxm9  intc in1 vdd vdd  pmos4 l=2e-07 w=1e-06
mxm4  out in1 intd vdd  pmos4 l=2e-07 w=1e-06
.ENDS
.SUBCKT nand3_8 out in0 in1 in2
mxn0  out in0 inta gnd  nmos4 l=2e-07 w=1.4e-06
mxp0  out in0 vdd vdd  pmos4 l=2e-07 w=2.1e-06
mxn1  inta in1 intb gnd  nmos4 l=2e-07 w=1.4e-06
mxp1  out in1 vdd vdd  pmos4 l=2e-07 w=2.1e-06
mxn2  intb in2 gnd gnd  nmos4 l=2e-07 w=1.4e-06
mxp2  out in2 vdd vdd  pmos4 l=2e-07 w=2.1e-06
.ENDS
.SUBCKT xor2_8 out in0 in1
mxm0  out in0 intd vdd  pmos4 l=2e-07 w=4.9e-06
mxm1  intb in1 gnd gnd  nmos4 l=2e-07 w=1e-06
mxm7  inta in0 gnd gnd  nmos4 l=2e-07 w=6e-07
mxm8  inta in1 gnd gnd  nmos4 l=2e-07 w=6e-07
mxm3  out inta gnd gnd  nmos4 l=2e-07 w=1e-06
mxm2  out in0 intb gnd  nmos4 l=2e-07 w=1e-06
mxm10  inta in0 intc vdd  pmos4 l=2e-07 w=4.2e-06
mxm6  intd inta vdd vdd  pmos4 l=2e-07 w=4.9e-06
mxm9  intc in1 vdd vdd  pmos4 l=2e-07 w=4.2e-06
mxm4  out in1 intd vdd  pmos4 l=2e-07 w=4.9e-06
.ENDS
.SUBCKT xor2_9 out in0 in1
mxm0  out in0 intd vdd  pmos4 l=2e-07 w=5.6e-06
mxm1  intb in1 gnd gnd  nmos4 l=2e-07 w=2.1e-06
mxm7  inta in0 gnd gnd  nmos4 l=2e-07 w=1.4e-06
mxm8  inta in1 gnd gnd  nmos4 l=2e-07 w=1.4e-06
mxm3  out inta gnd gnd  nmos4 l=2e-07 w=2.1e-06
mxm2  out in0 intb gnd  nmos4 l=2e-07 w=2.1e-06
mxm10  inta in0 intc vdd  pmos4 l=2e-07 w=4.2e-06
mxm6  intd inta vdd vdd  pmos4 l=2e-07 w=5.6e-06
mxm9  intc in1 vdd vdd  pmos4 l=2e-07 w=4.2e-06
mxm4  out in1 intd vdd  pmos4 l=2e-07 w=5.6e-06
.ENDS
.SUBCKT xor2_10 out in0 in1
mxm0  out in0 intd vdd  pmos4 l=2e-07 w=4.9e-06
mxm1  intb in1 gnd gnd  nmos4 l=2e-07 w=1e-06
mxm7  inta in0 gnd gnd  nmos4 l=2e-07 w=2.1e-06
mxm8  inta in1 gnd gnd  nmos4 l=2e-07 w=2.1e-06
mxm3  out inta gnd gnd  nmos4 l=2e-07 w=1e-06
mxm2  out in0 intb gnd  nmos4 l=2e-07 w=1e-06
mxm10  inta in0 intc vdd  pmos4 l=2e-07 w=4.2e-06
mxm6  intd inta vdd vdd  pmos4 l=2e-07 w=4.9e-06
mxm9  intc in1 vdd vdd  pmos4 l=2e-07 w=4.2e-06
mxm4  out in1 intd vdd  pmos4 l=2e-07 w=4.9e-06
.ENDS
.SUBCKT xor2_11 out in0 in1
mxm0  out in0 intd vdd  pmos4 l=2e-07 w=4.9e-06
mxm1  intb in1 gnd gnd  nmos4 l=2e-07 w=1e-06
mxm7  inta in0 gnd gnd  nmos4 l=2e-07 w=1.4e-06
mxm8  inta in1 gnd gnd  nmos4 l=2e-07 w=1.4e-06
mxm3  out inta gnd gnd  nmos4 l=2e-07 w=1e-06
mxm2  out in0 intb gnd  nmos4 l=2e-07 w=1e-06
mxm10  inta in0 intc vdd  pmos4 l=2e-07 w=4.2e-06
mxm6  intd inta vdd vdd  pmos4 l=2e-07 w=4.9e-06
mxm9  intc in1 vdd vdd  pmos4 l=2e-07 w=4.2e-06
mxm4  out in1 intd vdd  pmos4 l=2e-07 w=4.9e-06
.ENDS
.SUBCKT xor2_12 out in0 in1
mxm0  out in0 intd vdd  pmos4 l=2e-07 w=2.1e-06
mxm1  intb in1 gnd gnd  nmos4 l=2e-07 w=6e-07
mxm7  inta in0 gnd gnd  nmos4 l=2e-07 w=6e-07
mxm8  inta in1 gnd gnd  nmos4 l=2e-07 w=6e-07
mxm3  out inta gnd gnd  nmos4 l=2e-07 w=6e-07
mxm2  out in0 intb gnd  nmos4 l=2e-07 w=6e-07
mxm10  inta in0 intc vdd  pmos4 l=2e-07 w=1.4e-06
mxm6  intd inta vdd vdd  pmos4 l=2e-07 w=2.1e-06
mxm9  intc in1 vdd vdd  pmos4 l=2e-07 w=1.4e-06
mxm4  out in1 intd vdd  pmos4 l=2e-07 w=2.1e-06
.ENDS
.SUBCKT xor2_13 out in0 in1
mxm0  out in0 intd vdd  pmos4 l=2e-07 w=2.8e-06
mxm1  intb in1 gnd gnd  nmos4 l=2e-07 w=6e-07
mxm7  inta in0 gnd gnd  nmos4 l=2e-07 w=6e-07
mxm8  inta in1 gnd gnd  nmos4 l=2e-07 w=6e-07
mxm3  out inta gnd gnd  nmos4 l=2e-07 w=6e-07
mxm2  out in0 intb gnd  nmos4 l=2e-07 w=6e-07
mxm10  inta in0 intc vdd  pmos4 l=2e-07 w=2.1e-06
mxm6  intd inta vdd vdd  pmos4 l=2e-07 w=2.8e-06
mxm9  intc in1 vdd vdd  pmos4 l=2e-07 w=2.1e-06
mxm4  out in1 intd vdd  pmos4 l=2e-07 w=2.8e-06
.ENDS
.SUBCKT xor2_14 out in0 in1
mxm0  out in0 intd vdd  pmos4 l=2e-07 w=4.2e-06
mxm1  intb in1 gnd gnd  nmos4 l=2e-07 w=1e-06
mxm7  inta in0 gnd gnd  nmos4 l=2e-07 w=1.4e-06
mxm8  inta in1 gnd gnd  nmos4 l=2e-07 w=1.4e-06
mxm3  out inta gnd gnd  nmos4 l=2e-07 w=1e-06
mxm2  out in0 intb gnd  nmos4 l=2e-07 w=1e-06
mxm10  inta in0 intc vdd  pmos4 l=2e-07 w=3.5e-06
mxm6  intd inta vdd vdd  pmos4 l=2e-07 w=4.2e-06
mxm9  intc in1 vdd vdd  pmos4 l=2e-07 w=3.5e-06
mxm4  out in1 intd vdd  pmos4 l=2e-07 w=4.2e-06
.ENDS
.SUBCKT nor3_1 out in0 in1 in2
mxn0  out in0 gnd gnd  nmos4 l=2e-07 w=6e-07
mxp0  out in0 intm vdd  pmos4 l=2e-07 w=1.4e-06
mxn1  out in1 gnd gnd  nmos4 l=2e-07 w=6e-07
mxp1  intm in1 intn vdd  pmos4 l=2e-07 w=1.4e-06
mxn2  out in2 gnd gnd  nmos4 l=2e-07 w=6e-07
mxp2  intn in2 vdd vdd  pmos4 l=2e-07 w=1.4e-06
.ENDS
.SUBCKT nor3_2 out in0 in1 in2
mxn0  out in0 gnd gnd  nmos4 l=2e-07 w=6e-07
mxp0  out in0 intm vdd  pmos4 l=2e-07 w=1e-06
mxn1  out in1 gnd gnd  nmos4 l=2e-07 w=6e-07
mxp1  intm in1 intn vdd  pmos4 l=2e-07 w=1e-06
mxn2  out in2 gnd gnd  nmos4 l=2e-07 w=6e-07
mxp2  intn in2 vdd vdd  pmos4 l=2e-07 w=1e-06
.ENDS
.SUBCKT xor2_15 out in0 in1
mxm0  out in0 intd vdd  pmos4 l=2e-07 w=4.9e-06
mxm1  intb in1 gnd gnd  nmos4 l=2e-07 w=2.1e-06
mxm7  inta in0 gnd gnd  nmos4 l=2e-07 w=1e-06
mxm8  inta in1 gnd gnd  nmos4 l=2e-07 w=1e-06
mxm3  out inta gnd gnd  nmos4 l=2e-07 w=2.1e-06
mxm2  out in0 intb gnd  nmos4 l=2e-07 w=2.1e-06
mxm10  inta in0 intc vdd  pmos4 l=2e-07 w=3.5e-06
mxm6  intd inta vdd vdd  pmos4 l=2e-07 w=4.9e-06
mxm9  intc in1 vdd vdd  pmos4 l=2e-07 w=3.5e-06
mxm4  out in1 intd vdd  pmos4 l=2e-07 w=4.9e-06
.ENDS
.SUBCKT nand2_10 out in0 in1
mxn0  out in0 inta gnd  nmos4 l=2e-07 w=1.4e-06
mxp0  out in0 vdd vdd  pmos4 l=2e-07 w=1e-06
mxn1  inta in1 gnd gnd  nmos4 l=2e-07 w=1.4e-06
mxp1  out in1 vdd vdd  pmos4 l=2e-07 w=1e-06
.ENDS
.SUBCKT inv1x_15 out in0
mxn0  out in0 gnd gnd  nmos4 l=2e-07 w=1e-06
mxp0  out in0 vdd vdd  pmos4 l=2e-07 w=2.8e-06
.ENDS
.SUBCKT oai21_7 out in0 in1 in2
mxn0  inta in0 gnd gnd  nmos4 l=2e-07 w=1.4e-06
mxp0  out in0 intm vdd  pmos4 l=2e-07 w=2.1e-06
mxn1  inta in1 gnd gnd  nmos4 l=2e-07 w=1.4e-06
mxp1  intm in1 vdd vdd  pmos4 l=2e-07 w=2.1e-06
mxn2  out in2 inta gnd  nmos4 l=2e-07 w=1.4e-06
mxp2  out in2 vdd vdd  pmos4 l=2e-07 w=2.1e-06
.ENDS
.SUBCKT aoi21_2 out in0 in1 in2
mxn0  out in0 inta gnd  nmos4 l=2e-07 w=6e-07
mxp0  intm in0 vdd vdd  pmos4 l=2e-07 w=1.4e-06
mxn1  inta in1 gnd gnd  nmos4 l=2e-07 w=6e-07
mxp1  intm in1 vdd vdd  pmos4 l=2e-07 w=1.4e-06
mxn2  out in2 gnd gnd  nmos4 l=2e-07 w=6e-07
mxp2  out in2 intm vdd  pmos4 l=2e-07 w=1.4e-06
.ENDS
.SUBCKT nand4_3 out in0 in1 in2 in3
mxn0  out in0 inta gnd  nmos4 l=2e-07 w=1.4e-06
mxp0  out in0 vdd vdd  pmos4 l=2e-07 w=1.4e-06
mxn1  inta in1 intb gnd  nmos4 l=2e-07 w=1.4e-06
mxp1  out in1 vdd vdd  pmos4 l=2e-07 w=1.4e-06
mxn2  intb in2 intc gnd  nmos4 l=2e-07 w=1.4e-06
mxp2  out in2 vdd vdd  pmos4 l=2e-07 w=1.4e-06
mxn3  intc in3 gnd gnd  nmos4 l=2e-07 w=1.4e-06
mxp3  out in3 vdd vdd  pmos4 l=2e-07 w=1.4e-06
.ENDS
.SUBCKT inv1x_16 out in0
mxn0  out in0 gnd gnd  nmos4 l=2e-07 w=1.4e-06
mxp0  out in0 vdd vdd  pmos4 l=2e-07 w=1.4e-06
.ENDS
.SUBCKT oai21_8 out in0 in1 in2
mxn0  inta in0 gnd gnd  nmos4 l=2e-07 w=6e-07
mxp0  out in0 intm vdd  pmos4 l=2e-07 w=2.1e-06
mxn1  inta in1 gnd gnd  nmos4 l=2e-07 w=6e-07
mxp1  intm in1 vdd vdd  pmos4 l=2e-07 w=2.1e-06
mxn2  out in2 inta gnd  nmos4 l=2e-07 w=6e-07
mxp2  out in2 vdd vdd  pmos4 l=2e-07 w=2.1e-06
.ENDS
.SUBCKT oai21_9 out in0 in1 in2
mxn0  inta in0 gnd gnd  nmos4 l=2e-07 w=6e-07
mxp0  out in0 intm vdd  pmos4 l=2e-07 w=2.8e-06
mxn1  inta in1 gnd gnd  nmos4 l=2e-07 w=6e-07
mxp1  intm in1 vdd vdd  pmos4 l=2e-07 w=2.8e-06
mxn2  out in2 inta gnd  nmos4 l=2e-07 w=6e-07
mxp2  out in2 vdd vdd  pmos4 l=2e-07 w=2.8e-06
.ENDS
.SUBCKT xor2_16 out in0 in1
mxm0  out in0 intd vdd  pmos4 l=2e-07 w=1.4e-06
mxm1  intb in1 gnd gnd  nmos4 l=2e-07 w=6e-07
mxm7  inta in0 gnd gnd  nmos4 l=2e-07 w=6e-07
mxm8  inta in1 gnd gnd  nmos4 l=2e-07 w=6e-07
mxm3  out inta gnd gnd  nmos4 l=2e-07 w=6e-07
mxm2  out in0 intb gnd  nmos4 l=2e-07 w=6e-07
mxm10  inta in0 intc vdd  pmos4 l=2e-07 w=1.4e-06
mxm6  intd inta vdd vdd  pmos4 l=2e-07 w=1.4e-06
mxm9  intc in1 vdd vdd  pmos4 l=2e-07 w=1.4e-06
mxm4  out in1 intd vdd  pmos4 l=2e-07 w=1.4e-06
.ENDS
.SUBCKT nand3_9 out in0 in1 in2
mxn0  out in0 inta gnd  nmos4 l=2e-07 w=1e-06
mxp0  out in0 vdd vdd  pmos4 l=2e-07 w=2.1e-06
mxn1  inta in1 intb gnd  nmos4 l=2e-07 w=1e-06
mxp1  out in1 vdd vdd  pmos4 l=2e-07 w=2.1e-06
mxn2  intb in2 gnd gnd  nmos4 l=2e-07 w=1e-06
mxp2  out in2 vdd vdd  pmos4 l=2e-07 w=2.1e-06
.ENDS
.SUBCKT aoi21_3 out in0 in1 in2
mxn0  out in0 inta gnd  nmos4 l=2e-07 w=1e-06
mxp0  intm in0 vdd vdd  pmos4 l=2e-07 w=1.4e-06
mxn1  inta in1 gnd gnd  nmos4 l=2e-07 w=1e-06
mxp1  intm in1 vdd vdd  pmos4 l=2e-07 w=1.4e-06
mxn2  out in2 gnd gnd  nmos4 l=2e-07 w=1e-06
mxp2  out in2 intm vdd  pmos4 l=2e-07 w=1.4e-06
.ENDS
.SUBCKT nor2_3 out in0 in1
mxn0  out in0 gnd gnd  nmos4 l=2e-07 w=6e-07
mxp0  out in0 intm vdd  pmos4 l=2e-07 w=3.5e-06
mxn1  out in1 gnd gnd  nmos4 l=2e-07 w=6e-07
mxp1  intm in1 vdd vdd  pmos4 l=2e-07 w=3.5e-06
.ENDS
.SUBCKT nand3_10 out in0 in1 in2
mxn0  out in0 inta gnd  nmos4 l=2e-07 w=2.1e-06
mxp0  out in0 vdd vdd  pmos4 l=2e-07 w=2.8e-06
mxn1  inta in1 intb gnd  nmos4 l=2e-07 w=2.1e-06
mxp1  out in1 vdd vdd  pmos4 l=2e-07 w=2.8e-06
mxn2  intb in2 gnd gnd  nmos4 l=2e-07 w=2.1e-06
mxp2  out in2 vdd vdd  pmos4 l=2e-07 w=2.8e-06
.ENDS
.SUBCKT nor2_4 out in0 in1
mxn0  out in0 gnd gnd  nmos4 l=2e-07 w=6e-07
mxp0  out in0 intm vdd  pmos4 l=2e-07 w=2.1e-06
mxn1  out in1 gnd gnd  nmos4 l=2e-07 w=6e-07
mxp1  intm in1 vdd vdd  pmos4 l=2e-07 w=2.1e-06
.ENDS
.SUBCKT xor2_17 out in0 in1
mxm0  out in0 intd vdd  pmos4 l=2e-07 w=2.1e-06
mxm1  intb in1 gnd gnd  nmos4 l=2e-07 w=1e-06
mxm7  inta in0 gnd gnd  nmos4 l=2e-07 w=6e-07
mxm8  inta in1 gnd gnd  nmos4 l=2e-07 w=6e-07
mxm3  out inta gnd gnd  nmos4 l=2e-07 w=1e-06
mxm2  out in0 intb gnd  nmos4 l=2e-07 w=1e-06
mxm10  inta in0 intc vdd  pmos4 l=2e-07 w=1.4e-06
mxm6  intd inta vdd vdd  pmos4 l=2e-07 w=2.1e-06
mxm9  intc in1 vdd vdd  pmos4 l=2e-07 w=1.4e-06
mxm4  out in1 intd vdd  pmos4 l=2e-07 w=2.1e-06
.ENDS
.SUBCKT xor2_18 out in0 in1
mxm0  out in0 intd vdd  pmos4 l=2e-07 w=3.5e-06
mxm1  intb in1 gnd gnd  nmos4 l=2e-07 w=1.4e-06
mxm7  inta in0 gnd gnd  nmos4 l=2e-07 w=6e-07
mxm8  inta in1 gnd gnd  nmos4 l=2e-07 w=6e-07
mxm3  out inta gnd gnd  nmos4 l=2e-07 w=1.4e-06
mxm2  out in0 intb gnd  nmos4 l=2e-07 w=1.4e-06
mxm10  inta in0 intc vdd  pmos4 l=2e-07 w=2.1e-06
mxm6  intd inta vdd vdd  pmos4 l=2e-07 w=3.5e-06
mxm9  intc in1 vdd vdd  pmos4 l=2e-07 w=2.1e-06
mxm4  out in1 intd vdd  pmos4 l=2e-07 w=3.5e-06
.ENDS
.SUBCKT inv1x_17 out in0
mxn0  out in0 gnd gnd  nmos4 l=2e-07 w=1.4e-06
mxp0  out in0 vdd vdd  pmos4 l=2e-07 w=4.2e-06
.ENDS
.SUBCKT nand4_4 out in0 in1 in2 in3
mxn0  out in0 inta gnd  nmos4 l=2e-07 w=1.4e-06
mxp0  out in0 vdd vdd  pmos4 l=2e-07 w=1e-06
mxn1  inta in1 intb gnd  nmos4 l=2e-07 w=1.4e-06
mxp1  out in1 vdd vdd  pmos4 l=2e-07 w=1e-06
mxn2  intb in2 intc gnd  nmos4 l=2e-07 w=1.4e-06
mxp2  out in2 vdd vdd  pmos4 l=2e-07 w=1e-06
mxn3  intc in3 gnd gnd  nmos4 l=2e-07 w=1.4e-06
mxp3  out in3 vdd vdd  pmos4 l=2e-07 w=1e-06
.ENDS
.SUBCKT nand3_11 out in0 in1 in2
mxn0  out in0 inta gnd  nmos4 l=2e-07 w=2.1e-06
mxp0  out in0 vdd vdd  pmos4 l=2e-07 w=3.5e-06
mxn1  inta in1 intb gnd  nmos4 l=2e-07 w=2.1e-06
mxp1  out in1 vdd vdd  pmos4 l=2e-07 w=3.5e-06
mxn2  intb in2 gnd gnd  nmos4 l=2e-07 w=2.1e-06
mxp2  out in2 vdd vdd  pmos4 l=2e-07 w=3.5e-06
.ENDS
.SUBCKT oai22_2 out in0 in1 in2 in3
mxn0  inta in0 gnd gnd  nmos4 l=2e-07 w=1e-06
mxp0  out in0 intm vdd  pmos4 l=2e-07 w=2.1e-06
mxn1  inta in1 gnd gnd  nmos4 l=2e-07 w=1e-06
mxp1  intm in1 vdd vdd  pmos4 l=2e-07 w=2.1e-06
mxn2  out in2 inta gnd  nmos4 l=2e-07 w=1e-06
mxp2  out in2 intn vdd  pmos4 l=2e-07 w=2.1e-06
mxn3  out in3 inta gnd  nmos4 l=2e-07 w=1e-06
mxp3  intn in3 vdd vdd  pmos4 l=2e-07 w=2.1e-06
.ENDS
.SUBCKT aoi21_4 out in0 in1 in2
mxn0  out in0 inta gnd  nmos4 l=2e-07 w=1e-06
mxp0  intm in0 vdd vdd  pmos4 l=2e-07 w=2.1e-06
mxn1  inta in1 gnd gnd  nmos4 l=2e-07 w=1e-06
mxp1  intm in1 vdd vdd  pmos4 l=2e-07 w=2.1e-06
mxn2  out in2 gnd gnd  nmos4 l=2e-07 w=1e-06
mxp2  out in2 intm vdd  pmos4 l=2e-07 w=2.1e-06
.ENDS
.SUBCKT aoi21_5 out in0 in1 in2
mxn0  out in0 inta gnd  nmos4 l=2e-07 w=6e-07
mxp0  intm in0 vdd vdd  pmos4 l=2e-07 w=2.1e-06
mxn1  inta in1 gnd gnd  nmos4 l=2e-07 w=6e-07
mxp1  intm in1 vdd vdd  pmos4 l=2e-07 w=2.1e-06
mxn2  out in2 gnd gnd  nmos4 l=2e-07 w=6e-07
mxp2  out in2 intm vdd  pmos4 l=2e-07 w=2.1e-06
.ENDS
.SUBCKT nor2_5 out in0 in1
mxn0  out in0 gnd gnd  nmos4 l=2e-07 w=1e-06
mxp0  out in0 intm vdd  pmos4 l=2e-07 w=1.4e-06
mxn1  out in1 gnd gnd  nmos4 l=2e-07 w=1e-06
mxp1  intm in1 vdd vdd  pmos4 l=2e-07 w=1.4e-06
.ENDS
.SUBCKT aoi22_2 out in0 in1 in2 in3
mxn0  out in0 inta gnd  nmos4 l=2e-07 w=6e-07
mxp0  intm in0 vdd vdd  pmos4 l=2e-07 w=1.4e-06
mxn1  inta in1 gnd gnd  nmos4 l=2e-07 w=6e-07
mxp1  intm in1 vdd vdd  pmos4 l=2e-07 w=1.4e-06
mxn2  out in2 intb gnd  nmos4 l=2e-07 w=6e-07
mxp2  out in2 intm vdd  pmos4 l=2e-07 w=1.4e-06
mxn3  intb in3 gnd gnd  nmos4 l=2e-07 w=6e-07
mxp3  out in3 intm vdd  pmos4 l=2e-07 w=1.4e-06
.ENDS
.SUBCKT nor2_6 out in0 in1
mxn0  out in0 gnd gnd  nmos4 l=2e-07 w=6e-07
mxp0  out in0 intm vdd  pmos4 l=2e-07 w=2.8e-06
mxn1  out in1 gnd gnd  nmos4 l=2e-07 w=6e-07
mxp1  intm in1 vdd vdd  pmos4 l=2e-07 w=2.8e-06
.ENDS
.SUBCKT nor2_7 out in0 in1
mxn0  out in0 gnd gnd  nmos4 l=2e-07 w=1e-06
mxp0  out in0 intm vdd  pmos4 l=2e-07 w=2.1e-06
mxn1  out in1 gnd gnd  nmos4 l=2e-07 w=1e-06
mxp1  intm in1 vdd vdd  pmos4 l=2e-07 w=2.1e-06
.ENDS
.SUBCKT nand3_12 out in0 in1 in2
mxn0  out in0 inta gnd  nmos4 l=2e-07 w=6e-07
mxp0  out in0 vdd vdd  pmos4 l=2e-07 w=1.4e-06
mxn1  inta in1 intb gnd  nmos4 l=2e-07 w=6e-07
mxp1  out in1 vdd vdd  pmos4 l=2e-07 w=1.4e-06
mxn2  intb in2 gnd gnd  nmos4 l=2e-07 w=6e-07
mxp2  out in2 vdd vdd  pmos4 l=2e-07 w=1.4e-06
.ENDS
.SUBCKT nand3_13 out in0 in1 in2
mxn0  out in0 inta gnd  nmos4 l=2e-07 w=2.1e-06
mxp0  out in0 vdd vdd  pmos4 l=2e-07 w=1.4e-06
mxn1  inta in1 intb gnd  nmos4 l=2e-07 w=2.1e-06
mxp1  out in1 vdd vdd  pmos4 l=2e-07 w=1.4e-06
mxn2  intb in2 gnd gnd  nmos4 l=2e-07 w=2.1e-06
mxp2  out in2 vdd vdd  pmos4 l=2e-07 w=1.4e-06
.ENDS
.SUBCKT nand4_5 out in0 in1 in2 in3
mxn0  out in0 inta gnd  nmos4 l=2e-07 w=1e-06
mxp0  out in0 vdd vdd  pmos4 l=2e-07 w=1.4e-06
mxn1  inta in1 intb gnd  nmos4 l=2e-07 w=1e-06
mxp1  out in1 vdd vdd  pmos4 l=2e-07 w=1.4e-06
mxn2  intb in2 intc gnd  nmos4 l=2e-07 w=1e-06
mxp2  out in2 vdd vdd  pmos4 l=2e-07 w=1.4e-06
mxn3  intc in3 gnd gnd  nmos4 l=2e-07 w=1e-06
mxp3  out in3 vdd vdd  pmos4 l=2e-07 w=1.4e-06
.ENDS
.SUBCKT nand2_11 out in0 in1
mxn0  out in0 inta gnd  nmos4 l=2e-07 w=1.4e-06
mxp0  out in0 vdd vdd  pmos4 l=2e-07 w=2.8e-06
mxn1  inta in1 gnd gnd  nmos4 l=2e-07 w=1.4e-06
mxp1  out in1 vdd vdd  pmos4 l=2e-07 w=2.8e-06
.ENDS
.SUBCKT oai21_10 out in0 in1 in2
mxn0  inta in0 gnd gnd  nmos4 l=2e-07 w=1e-06
mxp0  out in0 intm vdd  pmos4 l=2e-07 w=2.8e-06
mxn1  inta in1 gnd gnd  nmos4 l=2e-07 w=1e-06
mxp1  intm in1 vdd vdd  pmos4 l=2e-07 w=2.8e-06
mxn2  out in2 inta gnd  nmos4 l=2e-07 w=1e-06
mxp2  out in2 vdd vdd  pmos4 l=2e-07 w=2.8e-06
.ENDS
.SUBCKT nand2_12 out in0 in1
mxn0  out in0 inta gnd  nmos4 l=2e-07 w=2.1e-06
mxp0  out in0 vdd vdd  pmos4 l=2e-07 w=1.4e-06
mxn1  inta in1 gnd gnd  nmos4 l=2e-07 w=2.1e-06
mxp1  out in1 vdd vdd  pmos4 l=2e-07 w=1.4e-06
.ENDS
Xld0 prout0 n353_405  invload
Xld1 prout1 n355_399  invload
Xld2 prout2 n361_940  invload
Xld3 prout3 n358_1161  invload
Xld4 prout4 n351_1247  invload